L24/1726539/Trafos.dss
! ==========================================================
! TRANSFORMADORES DE DISTRIBUICAO — gerados de UNTRMT/EQTRMT
! Secundario 1F/2F: 3 enrolamentos com derivacao central
! Neutro no no 4, aterrado em _ATERRAMENTO.dss
! Kv de BT conforme TEN_LIN_SE da BDGD
! ==========================================================
New Transformer.330774771_331766899 phases=3 windings=2 Xhl=4.890
~ wdg=1 bus=node_502365446.1.2.3 conn=delta Kv=13.8 Kva=500.0 %R=0.510
~ wdg=2 bus=node_527165958.1.2.3.4 conn=wye Kv=0.2200 Kva=500.0 %R=0.510
New Transformer.331240442_331777546 phases=3 windings=2 Xhl=4.900
~ wdg=1 bus=node_432921488.1.2.3 conn=delta Kv=13.8 Kva=300.0 %R=0.495
~ wdg=2 bus=node_483259692.1.2.3.4 conn=wye Kv=0.2200 Kva=300.0 %R=0.495
New Transformer.921445183_921445182 phases=3 windings=2 Xhl=4.900
~ wdg=1 bus=node_444465037.1.2.3 conn=delta Kv=13.8 Kva=300.0 %R=0.495
~ wdg=2 bus=node_1187286730.1.2.3.4 conn=wye Kv=0.2200 Kva=300.0 %R=0.495
New Transformer.973339021_973339022 phases=3 windings=2 Xhl=4.900
~ wdg=1 bus=node_1231984019.1.2.3 conn=delta Kv=13.8 Kva=300.0 %R=0.495
~ wdg=2 bus=node_1231984111.1.2.3.4 conn=wye Kv=0.2200 Kva=300.0 %R=0.495
New Transformer.331366683_331764722 phases=3 windings=2 Xhl=4.900
~ wdg=1 bus=node_432757451.1.2.3 conn=delta Kv=13.8 Kva=300.0 %R=0.495
~ wdg=2 bus=node_419926488.1.2.3.4 conn=wye Kv=0.2200 Kva=300.0 %R=0.495
New Transformer.331474858_331764570 phases=3 windings=2 Xhl=4.900
~ wdg=1 bus=node_432393351.1.2.3 conn=delta Kv=13.8 Kva=300.0 %R=0.495
~ wdg=2 bus=node_496230497.1.2.3.4 conn=wye Kv=0.2200 Kva=300.0 %R=0.495
New Transformer.2575442998_2575442997 phases=3 windings=2 Xhl=4.900
~ wdg=1 bus=node_2736957360.1.2.3 conn=delta Kv=13.8 Kva=300.0 %R=0.495
~ wdg=2 bus=node_2736957256.1.2.3.4 conn=wye Kv=0.2200 Kva=300.0 %R=0.495
New Transformer.2726887552_2726887559 phases=3 windings=2 Xhl=3.840
~ wdg=1 bus=node_2925712727.1.2.3 conn=delta Kv=13.8 Kva=150.0 %R=0.565
~ wdg=2 bus=node_2925712681.1.2.3.4 conn=wye Kv=0.2200 Kva=150.0 %R=0.565
New Transformer.2710480459_2710480460 phases=3 windings=2 Xhl=3.840
~ wdg=1 bus=node_2895667975.1.2.3 conn=delta Kv=13.8 Kva=150.0 %R=0.565
~ wdg=2 bus=node_2895668031.1.2.3.4 conn=wye Kv=0.2200 Kva=150.0 %R=0.565
New Transformer.2767852307_2767852317 phases=3 windings=2 Xhl=3.840
~ wdg=1 bus=node_2986232386.1.2.3 conn=delta Kv=13.8 Kva=150.0 %R=0.565
~ wdg=2 bus=node_2986232315.1.2.3.4 conn=wye Kv=0.2200 Kva=150.0 %R=0.565
New Transformer.2575443745_2575443744 phases=3 windings=2 Xhl=3.840
~ wdg=1 bus=node_2736959604.1.2.3 conn=delta Kv=13.8 Kva=150.0 %R=0.565
~ wdg=2 bus=node_2736959634.1.2.3.4 conn=wye Kv=0.2200 Kva=150.0 %R=0.565
New Transformer.2215983185_2215983184 phases=3 windings=2 Xhl=3.840
~ wdg=1 bus=node_2521385456.1.2.3 conn=delta Kv=13.8 Kva=150.0 %R=0.565
~ wdg=2 bus=node_2521385473.1.2.3.4 conn=wye Kv=0.2200 Kva=150.0 %R=0.565
New Transformer.331569946_2335502309 phases=3 windings=2 Xhl=3.840
~ wdg=1 bus=node_442734231.1.2.3 conn=delta Kv=13.8 Kva=150.0 %R=0.565
~ wdg=2 bus=node_413847982.1.2.3.4 conn=wye Kv=0.2200 Kva=150.0 %R=0.565
New Transformer.331475155_331767170 phases=3 windings=2 Xhl=3.840
~ wdg=1 bus=node_444686749.1.2.3 conn=delta Kv=13.8 Kva=150.0 %R=0.565
~ wdg=2 bus=node_418094981.1.2.3.4 conn=wye Kv=0.2200 Kva=150.0 %R=0.565
New Transformer.331571102_331731901 phases=3 windings=2 Xhl=3.840
~ wdg=1 bus=node_432754159.1.2.3 conn=delta Kv=13.8 Kva=150.0 %R=0.565
~ wdg=2 bus=node_1161059253.1.2.3.4 conn=wye Kv=0.2200 Kva=150.0 %R=0.565
New Transformer.331571127_331723967 phases=3 windings=2 Xhl=3.840
~ wdg=1 bus=node_444465161.1.2.3 conn=delta Kv=13.8 Kva=150.0 %R=0.565
~ wdg=2 bus=node_418077678.1.2.3.4 conn=wye Kv=0.2200 Kva=150.0 %R=0.565
New Transformer.331570696_331573795 phases=3 windings=2 Xhl=3.840
~ wdg=1 bus=node_426109943.1.2.3 conn=delta Kv=13.8 Kva=150.0 %R=0.565
~ wdg=2 bus=node_418076775.1.2.3.4 conn=wye Kv=0.2200 Kva=150.0 %R=0.565
New Transformer.331473096_331777919 phases=3 windings=2 Xhl=3.840
~ wdg=1 bus=node_432924290.1.2.3 conn=delta Kv=13.8 Kva=150.0 %R=0.565
~ wdg=2 bus=node_417230747.1.2.3.4 conn=wye Kv=0.2200 Kva=150.0 %R=0.565
New Transformer.331474876_955007200 phases=3 windings=2 Xhl=3.840
~ wdg=1 bus=node_431136074.1.2.3 conn=delta Kv=13.8 Kva=150.0 %R=0.565
~ wdg=2 bus=node_418104864.1.2.3.4 conn=wye Kv=0.2200 Kva=150.0 %R=0.565
New Transformer.331474521_331722959 phases=3 windings=2 Xhl=3.840
~ wdg=1 bus=node_427479152.1.2.3 conn=delta Kv=13.8 Kva=150.0 %R=0.565
~ wdg=2 bus=node_418616290.1.2.3.4 conn=wye Kv=0.2200 Kva=150.0 %R=0.565
New Transformer.331473706_331777545 phases=3 windings=2 Xhl=3.840
~ wdg=1 bus=node_428545383.1.2.3 conn=delta Kv=13.8 Kva=150.0 %R=0.565
~ wdg=2 bus=node_418070021.1.2.3.4 conn=wye Kv=0.2200 Kva=150.0 %R=0.565
New Transformer.331473722_612500468 phases=3 windings=2 Xhl=3.840
~ wdg=1 bus=node_432757795.1.2.3 conn=delta Kv=13.8 Kva=150.0 %R=0.565
~ wdg=2 bus=node_418120802.1.2.3.4 conn=wye Kv=0.2200 Kva=150.0 %R=0.565
New Transformer.331473646_331721054 phases=3 windings=2 Xhl=3.840
~ wdg=1 bus=node_444687732.1.2.3 conn=delta Kv=13.8 Kva=150.0 %R=0.565
~ wdg=2 bus=node_609988732.1.2.3.4 conn=wye Kv=0.2200 Kva=150.0 %R=0.565
New Transformer.331473223_331573777 phases=3 windings=2 Xhl=3.840
~ wdg=1 bus=node_432923795.1.2.3 conn=delta Kv=13.8 Kva=150.0 %R=0.565
~ wdg=2 bus=node_417230786.1.2.3.4 conn=wye Kv=0.2200 Kva=150.0 %R=0.565
New Transformer.1821089730_1821089732 phases=3 windings=2 Xhl=3.840
~ wdg=1 bus=node_2199747602.1.2.3 conn=delta Kv=13.8 Kva=150.0 %R=0.565
~ wdg=2 bus=node_2199747588.1.2.3.4 conn=wye Kv=0.2200 Kva=150.0 %R=0.565
New Transformer.331472171_331766067 phases=3 windings=2 Xhl=3.840
~ wdg=1 bus=node_432396563.1.2.3 conn=delta Kv=13.8 Kva=150.0 %R=0.565
~ wdg=2 bus=node_484286692.1.2.3.4 conn=wye Kv=0.2200 Kva=150.0 %R=0.565
New Transformer.331472519_1883460044 phases=3 windings=2 Xhl=3.840
~ wdg=1 bus=node_2040199760.1.2.3 conn=delta Kv=13.8 Kva=150.0 %R=0.565
~ wdg=2 bus=node_2040199692.1.2.3.4 conn=wye Kv=0.2200 Kva=150.0 %R=0.565
New Transformer.331472617_331728960 phases=3 windings=2 Xhl=3.840
~ wdg=1 bus=node_426108589.1.2.3 conn=delta Kv=13.8 Kva=150.0 %R=0.565
~ wdg=2 bus=node_520646588.1.2.3.4 conn=wye Kv=0.2200 Kva=150.0 %R=0.565
New Transformer.331471210_331720098 phases=3 windings=2 Xhl=3.840
~ wdg=1 bus=node_434471181.1.2.3 conn=delta Kv=13.8 Kva=150.0 %R=0.565
~ wdg=2 bus=node_496230467.1.2.3.4 conn=wye Kv=0.2200 Kva=150.0 %R=0.565
New Transformer.331571901_331720935 phases=3 windings=2 Xhl=3.840
~ wdg=1 bus=node_432924105.1.2.3 conn=delta Kv=13.8 Kva=150.0 %R=0.565
~ wdg=2 bus=node_483190327.1.2.3.4 conn=wye Kv=0.2200 Kva=150.0 %R=0.565
New Transformer.331572012_703778012 phases=3 windings=2 Xhl=3.840
~ wdg=1 bus=node_432923610.1.2.3 conn=delta Kv=13.8 Kva=150.0 %R=0.565
~ wdg=2 bus=node_417230573.1.2.3.4 conn=wye Kv=0.2200 Kva=150.0 %R=0.565
New Transformer.331471134_331779411 phases=3 windings=2 Xhl=3.840
~ wdg=1 bus=node_432575212.1.2.3 conn=delta Kv=13.8 Kva=150.0 %R=0.565
~ wdg=2 bus=node_418113607.1.2.3.4 conn=wye Kv=0.2200 Kva=150.0 %R=0.565
New Transformer.331471078_719528404 phases=3 windings=2 Xhl=3.840
~ wdg=1 bus=node_431498317.1.2.3 conn=delta Kv=13.8 Kva=150.0 %R=0.565
~ wdg=2 bus=node_423718058.1.2.3.4 conn=wye Kv=0.2200 Kva=150.0 %R=0.565
New Transformer.331571594_331573775 phases=3 windings=2 Xhl=3.840
~ wdg=1 bus=node_432577222.1.2.3 conn=delta Kv=13.8 Kva=150.0 %R=0.565
~ wdg=2 bus=node_417230777.1.2.3.4 conn=wye Kv=0.2200 Kva=150.0 %R=0.565
New Transformer.1767990414_1767990415 phases=3 windings=2 Xhl=3.840
~ wdg=1 bus=node_2093338250.1.2.3 conn=delta Kv=13.8 Kva=150.0 %R=0.565
~ wdg=2 bus=node_2093338091.1.2.3.4 conn=wye Kv=0.2200 Kva=150.0 %R=0.565
New Transformer.331367207_331573241 phases=3 windings=2 Xhl=3.840
~ wdg=1 bus=node_1653182352.1.2.3 conn=delta Kv=13.8 Kva=150.0 %R=0.565
~ wdg=2 bus=node_483613682.1.2.3.4 conn=wye Kv=0.2200 Kva=150.0 %R=0.565
New Transformer.543521661_543521660 phases=3 windings=2 Xhl=3.840
~ wdg=1 bus=node_108884640.1.2.3 conn=delta Kv=13.8 Kva=150.0 %R=0.565
~ wdg=2 bus=node_813562718.1.2.3.4 conn=wye Kv=0.2200 Kva=150.0 %R=0.565
New Transformer.1496485159_1496485158 phases=3 windings=2 Xhl=3.840
~ wdg=1 bus=node_1804253724.1.2.3 conn=delta Kv=13.8 Kva=150.0 %R=0.565
~ wdg=2 bus=node_1804253776.1.2.3.4 conn=wye Kv=0.2200 Kva=150.0 %R=0.565
New Transformer.1387323130_1387323129 phases=3 windings=2 Xhl=3.840
~ wdg=1 bus=node_1682170566.1.2.3 conn=delta Kv=13.8 Kva=150.0 %R=0.565
~ wdg=2 bus=node_1682170410.1.2.3.4 conn=wye Kv=0.2200 Kva=150.0 %R=0.565
New Transformer.331364123_331779393 phases=3 windings=2 Xhl=3.840
~ wdg=1 bus=node_432576826.1.2.3 conn=delta Kv=13.8 Kva=150.0 %R=0.565
~ wdg=2 bus=node_418078203.1.2.3.4 conn=wye Kv=0.2200 Kva=150.0 %R=0.565
New Transformer.331364514_731585956 phases=3 windings=2 Xhl=3.840
~ wdg=1 bus=node_432923646.1.2.3 conn=delta Kv=13.8 Kva=150.0 %R=0.565
~ wdg=2 bus=node_417230582.1.2.3.4 conn=wye Kv=0.2200 Kva=150.0 %R=0.565
New Transformer.331363948_2274725030 phases=3 windings=2 Xhl=3.840
~ wdg=1 bus=node_502364961.1.2.3 conn=delta Kv=13.8 Kva=150.0 %R=0.565
~ wdg=2 bus=node_456534377.1.2.3.4 conn=wye Kv=0.2200 Kva=150.0 %R=0.565
New Transformer.1446777569_1446777582 phases=3 windings=2 Xhl=3.840
~ wdg=1 bus=node_1743072384.1.2.3 conn=delta Kv=13.8 Kva=150.0 %R=0.565
~ wdg=2 bus=node_1743072077.1.2.3.4 conn=wye Kv=0.2200 Kva=150.0 %R=0.565
New Transformer.1445764081_1445764082 phases=3 windings=2 Xhl=3.840
~ wdg=1 bus=node_443046240.1.2.3 conn=delta Kv=13.8 Kva=150.0 %R=0.565
~ wdg=2 bus=node_418071287.1.2.3.4 conn=wye Kv=0.2200 Kva=150.0 %R=0.565
New Transformer.1351618425_1351618424 phases=3 windings=2 Xhl=3.840
~ wdg=1 bus=node_1645722984.1.2.3 conn=delta Kv=13.8 Kva=150.0 %R=0.565
~ wdg=2 bus=node_1645722918.1.2.3.4 conn=wye Kv=0.2200 Kva=150.0 %R=0.565
New Transformer.1354791483_1562552464 phases=3 windings=2 Xhl=3.840
~ wdg=1 bus=node_1648677107.1.2.3 conn=delta Kv=13.8 Kva=150.0 %R=0.565
~ wdg=2 bus=node_1648677121.1.2.3.4 conn=wye Kv=0.2200 Kva=150.0 %R=0.565
New Transformer.1354216263_1354216262 phases=3 windings=2 Xhl=3.840
~ wdg=1 bus=node_1648084664.1.2.3 conn=delta Kv=13.8 Kva=150.0 %R=0.565
~ wdg=2 bus=node_1648084581.1.2.3.4 conn=wye Kv=0.2200 Kva=150.0 %R=0.565
New Transformer.331363708_331766428 phases=3 windings=2 Xhl=3.840
~ wdg=1 bus=node_426109059.1.2.3 conn=delta Kv=13.8 Kva=150.0 %R=0.565
~ wdg=2 bus=node_417230552.1.2.3.4 conn=wye Kv=0.2200 Kva=150.0 %R=0.565
New Transformer.331363735_331720188 phases=3 windings=2 Xhl=3.840
~ wdg=1 bus=node_442735689.1.2.3 conn=delta Kv=13.8 Kva=150.0 %R=0.565
~ wdg=2 bus=node_523604024.1.2.3.4 conn=wye Kv=0.2200 Kva=150.0 %R=0.565
New Transformer.1889965465_1889965464 phases=3 windings=2 Xhl=3.840
~ wdg=1 bus=node_2211002138.1.2.3 conn=delta Kv=13.8 Kva=150.0 %R=0.565
~ wdg=2 bus=node_459800965.1.2.3.4 conn=wye Kv=0.2200 Kva=150.0 %R=0.565
New Transformer.474122055_474122054 phases=3 windings=2 Xhl=3.840
~ wdg=1 bus=node_743957080.1.2.3 conn=delta Kv=13.8 Kva=150.0 %R=0.565
~ wdg=2 bus=node_743957098.1.2.3.4 conn=wye Kv=0.2200 Kva=150.0 %R=0.565
New Transformer.1328804277_1328804276 phases=3 windings=2 Xhl=3.840
~ wdg=1 bus=node_432395519.1.2.3 conn=delta Kv=13.8 Kva=150.0 %R=0.565
~ wdg=2 bus=node_423721694.1.2.3.4 conn=wye Kv=0.2200 Kva=150.0 %R=0.565
New Transformer.945715051_1458899526 phases=3 windings=2 Xhl=3.840
~ wdg=1 bus=node_1207769450.1.2.3 conn=delta Kv=13.8 Kva=150.0 %R=0.565
~ wdg=2 bus=node_1207769501.1.2.3.4 conn=wye Kv=0.2200 Kva=150.0 %R=0.565
New Transformer.953006100_953006099 phases=3 windings=2 Xhl=3.840
~ wdg=1 bus=node_444690643.1.2.3 conn=delta Kv=13.8 Kva=150.0 %R=0.565
~ wdg=2 bus=node_460565163.1.2.3.4 conn=wye Kv=0.2200 Kva=150.0 %R=0.565
New Transformer.481469045_481469044 phases=3 windings=2 Xhl=3.840
~ wdg=1 bus=node_426306063.1.2.3 conn=delta Kv=13.8 Kva=150.0 %R=0.565
~ wdg=2 bus=node_751548777.1.2.3.4 conn=wye Kv=0.2200 Kva=150.0 %R=0.565
New Transformer.1844449178_2481957827 phases=3 windings=2 Xhl=3.840
~ wdg=1 bus=node_443351804.1.2.3 conn=delta Kv=13.8 Kva=150.0 %R=0.565
~ wdg=2 bus=node_418613578.1.2.3.4 conn=wye Kv=0.2200 Kva=150.0 %R=0.565
New Transformer.331242889_2186126928 phases=3 windings=2 Xhl=3.840
~ wdg=1 bus=node_2247754763.1.2.3 conn=delta Kv=13.8 Kva=150.0 %R=0.565
~ wdg=2 bus=node_2247754735.1.2.3.4 conn=wye Kv=0.2200 Kva=150.0 %R=0.565
New Transformer.331242895_331766397 phases=3 windings=2 Xhl=3.840
~ wdg=1 bus=node_442572070.1.2.3 conn=delta Kv=13.8 Kva=150.0 %R=0.565
~ wdg=2 bus=node_483491616.1.2.3.4 conn=wye Kv=0.2200 Kva=150.0 %R=0.565
New Transformer.331243055_331720169 phases=3 windings=2 Xhl=3.840
~ wdg=1 bus=node_426469470.1.2.3 conn=delta Kv=13.8 Kva=150.0 %R=0.565
~ wdg=2 bus=node_418080390.1.2.3.4 conn=wye Kv=0.2200 Kva=150.0 %R=0.565
New Transformer.331242966_1692772142 phases=3 windings=2 Xhl=3.840
~ wdg=1 bus=node_2018622321.1.2.3 conn=delta Kv=13.8 Kva=150.0 %R=0.565
~ wdg=2 bus=node_418521939.1.2.3.4 conn=wye Kv=0.2200 Kva=150.0 %R=0.565
New Transformer.331242321_331573989 phases=3 windings=2 Xhl=3.840
~ wdg=1 bus=node_432923391.1.2.3 conn=delta Kv=13.8 Kva=150.0 %R=0.565
~ wdg=2 bus=node_527494116.1.2.3.4 conn=wye Kv=0.2200 Kva=150.0 %R=0.565
New Transformer.331242803_525890474 phases=3 windings=2 Xhl=3.840
~ wdg=1 bus=node_432923352.1.2.3 conn=delta Kv=13.8 Kva=150.0 %R=0.565
~ wdg=2 bus=node_417230684.1.2.3.4 conn=wye Kv=0.2200 Kva=150.0 %R=0.565
New Transformer.331240906_525723008 phases=3 windings=2 Xhl=3.840
~ wdg=1 bus=node_1312130548.1.2.3 conn=delta Kv=13.8 Kva=150.0 %R=0.565
~ wdg=2 bus=node_1302361146.1.2.3.4 conn=wye Kv=0.2200 Kva=150.0 %R=0.565
New Transformer.330775107_331720892 phases=3 windings=2 Xhl=3.840
~ wdg=1 bus=node_2211916798.1.2.3 conn=delta Kv=13.8 Kva=150.0 %R=0.565
~ wdg=2 bus=node_1911087046.1.2.3.4 conn=wye Kv=0.2200 Kva=150.0 %R=0.565
New Transformer.331239776_331779399 phases=3 windings=2 Xhl=3.840
~ wdg=1 bus=node_428791350.1.2.3 conn=delta Kv=13.8 Kva=150.0 %R=0.565
~ wdg=2 bus=node_418070702.1.2.3.4 conn=wye Kv=0.2200 Kva=150.0 %R=0.565
New Transformer.331239897_331723885 phases=3 windings=2 Xhl=3.840
~ wdg=1 bus=node_432754014.1.2.3 conn=delta Kv=13.8 Kva=150.0 %R=0.565
~ wdg=2 bus=node_520645023.1.2.3.4 conn=wye Kv=0.2200 Kva=150.0 %R=0.565
New Transformer.330774759_331767119 phases=3 windings=2 Xhl=3.840
~ wdg=1 bus=node_426306563.1.2.3 conn=delta Kv=13.8 Kva=150.0 %R=0.565
~ wdg=2 bus=node_482838551.1.2.3.4 conn=wye Kv=0.2200 Kva=150.0 %R=0.565
New Transformer.331239355_331720688 phases=3 windings=2 Xhl=3.840
~ wdg=1 bus=node_427477229.1.2.3 conn=delta Kv=13.8 Kva=150.0 %R=0.565
~ wdg=2 bus=node_483147106.1.2.3.4 conn=wye Kv=0.2200 Kva=150.0 %R=0.565
New Transformer.330773917_331776967 phases=3 windings=2 Xhl=3.840
~ wdg=1 bus=node_444613317.1.2.3 conn=delta Kv=13.8 Kva=150.0 %R=0.565
~ wdg=2 bus=node_492208209.1.2.3.4 conn=wye Kv=0.2200 Kva=150.0 %R=0.565
New Transformer.627070406_2045172237 phases=3 windings=2 Xhl=3.840
~ wdg=1 bus=node_894982046.1.2.3 conn=delta Kv=13.8 Kva=150.0 %R=0.565
~ wdg=2 bus=node_894981775.1.2.3.4 conn=wye Kv=0.2200 Kva=150.0 %R=0.565
New Transformer.330773014_885817849 phases=3 windings=2 Xhl=3.840
~ wdg=1 bus=node_444688536.1.2.3 conn=delta Kv=13.8 Kva=150.0 %R=0.565
~ wdg=2 bus=node_458839153.1.2.3.4 conn=wye Kv=0.2200 Kva=150.0 %R=0.565
New Transformer.601456554_601456562 phases=3 windings=2 Xhl=3.840
~ wdg=1 bus=node_869582424.1.2.3 conn=delta Kv=13.8 Kva=150.0 %R=0.565
~ wdg=2 bus=node_462450284.1.2.3.4 conn=wye Kv=0.2200 Kva=150.0 %R=0.565
New Transformer.2219023688_2219023687 phases=3 windings=2 Xhl=3.840
~ wdg=1 bus=node_2524348619.1.2.3 conn=delta Kv=13.8 Kva=150.0 %R=0.565
~ wdg=2 bus=node_2524348582.1.2.3.4 conn=wye Kv=0.2200 Kva=150.0 %R=0.565
New Transformer.330772702_331721260 phases=3 windings=2 Xhl=3.840
~ wdg=1 bus=node_428791389.1.2.3 conn=delta Kv=13.8 Kva=112.5 %R=0.565
~ wdg=2 bus=node_418072145.1.2.3.4 conn=wye Kv=0.2200 Kva=112.5 %R=0.565
New Transformer.331239905_331728688 phases=3 windings=2 Xhl=3.840
~ wdg=1 bus=node_444464778.1.2.3 conn=delta Kv=13.8 Kva=112.5 %R=0.565
~ wdg=2 bus=node_492207379.1.2.3.4 conn=wye Kv=0.2200 Kva=112.5 %R=0.565
New Transformer.331240450_331573803 phases=3 windings=2 Xhl=3.840
~ wdg=1 bus=node_432576667.1.2.3 conn=delta Kv=13.8 Kva=112.5 %R=0.565
~ wdg=2 bus=node_418079946.1.2.3.4 conn=wye Kv=0.2200 Kva=112.5 %R=0.565
New Transformer.331240867_331573778 phases=3 windings=2 Xhl=3.840
~ wdg=1 bus=node_432757190.1.2.3 conn=delta Kv=13.8 Kva=112.5 %R=0.565
~ wdg=2 bus=node_417230501.1.2.3.4 conn=wye Kv=0.2200 Kva=112.5 %R=0.565
New Transformer.331242594_331573753 phases=3 windings=2 Xhl=3.840
~ wdg=1 bus=node_426661678.1.2.3 conn=delta Kv=13.8 Kva=112.5 %R=0.565
~ wdg=2 bus=node_418078959.1.2.3.4 conn=wye Kv=0.2200 Kva=112.5 %R=0.565
New Transformer.331243333_331777506 phases=3 windings=2 Xhl=3.840
~ wdg=1 bus=node_444690916.1.2.3 conn=delta Kv=13.8 Kva=112.5 %R=0.565
~ wdg=2 bus=node_418080702.1.2.3.4 conn=wye Kv=0.2200 Kva=112.5 %R=0.565
New Transformer.331365208_331729810 phases=3 windings=2 Xhl=3.840
~ wdg=1 bus=node_426109393.1.2.3 conn=delta Kv=13.8 Kva=112.5 %R=0.565
~ wdg=2 bus=node_418114786.1.2.3.4 conn=wye Kv=0.2200 Kva=112.5 %R=0.565
New Transformer.331365986_331722984 phases=3 windings=2 Xhl=3.840
~ wdg=1 bus=node_427477409.1.2.3 conn=delta Kv=13.8 Kva=112.5 %R=0.565
~ wdg=2 bus=node_418071389.1.2.3.4 conn=wye Kv=0.2200 Kva=112.5 %R=0.565
New Transformer.331571346_331763432 phases=3 windings=2 Xhl=3.840
~ wdg=1 bus=node_432757591.1.2.3 conn=delta Kv=13.8 Kva=112.5 %R=0.565
~ wdg=2 bus=node_418106106.1.2.3.4 conn=wye Kv=0.2200 Kva=112.5 %R=0.565
New Transformer.331367101_331777796 phases=3 windings=2 Xhl=3.840
~ wdg=1 bus=node_444688951.1.2.3 conn=delta Kv=13.8 Kva=112.5 %R=0.565
~ wdg=2 bus=node_418078839.1.2.3.4 conn=wye Kv=0.2200 Kva=112.5 %R=0.565
New Transformer.331367189_331767231 phases=3 windings=2 Xhl=3.840
~ wdg=1 bus=node_427477264.1.2.3 conn=delta Kv=13.8 Kva=112.5 %R=0.565
~ wdg=2 bus=node_527839346.1.2.3.4 conn=wye Kv=0.2200 Kva=112.5 %R=0.565
New Transformer.331472394_331723877 phases=3 windings=2 Xhl=3.840
~ wdg=1 bus=node_443620999.1.2.3 conn=delta Kv=13.8 Kva=112.5 %R=0.565
~ wdg=2 bus=node_418120799.1.2.3.4 conn=wye Kv=0.2200 Kva=112.5 %R=0.565
New Transformer.331472874_331573772 phases=3 windings=2 Xhl=3.840
~ wdg=1 bus=node_428791069.1.2.3 conn=delta Kv=13.8 Kva=112.5 %R=0.565
~ wdg=2 bus=node_418120826.1.2.3.4 conn=wye Kv=0.2200 Kva=112.5 %R=0.565
New Transformer.331472877_331777501 phases=3 windings=2 Xhl=3.840
~ wdg=1 bus=node_426469966.1.2.3 conn=delta Kv=13.8 Kva=112.5 %R=0.565
~ wdg=2 bus=node_418080513.1.2.3.4 conn=wye Kv=0.2200 Kva=112.5 %R=0.565
New Transformer.331473503_331728738 phases=3 windings=2 Xhl=3.840
~ wdg=1 bus=node_432757120.1.2.3 conn=delta Kv=13.8 Kva=112.5 %R=0.565
~ wdg=2 bus=node_418071398.1.2.3.4 conn=wye Kv=0.2200 Kva=112.5 %R=0.565
New Transformer.331473583_331766355 phases=3 windings=2 Xhl=3.840
~ wdg=1 bus=node_428791275.1.2.3 conn=delta Kv=13.8 Kva=112.5 %R=0.565
~ wdg=2 bus=node_418080399.1.2.3.4 conn=wye Kv=0.2200 Kva=112.5 %R=0.565
New Transformer.331474611_331722960 phases=3 windings=2 Xhl=3.840
~ wdg=1 bus=node_426470225.1.2.3 conn=delta Kv=13.8 Kva=112.5 %R=0.565
~ wdg=2 bus=node_418071428.1.2.3.4 conn=wye Kv=0.2200 Kva=112.5 %R=0.565
New Transformer.331474279_331777471 phases=3 windings=2 Xhl=3.840
~ wdg=1 bus=node_426109074.1.2.3 conn=delta Kv=13.8 Kva=112.5 %R=0.565
~ wdg=2 bus=node_528164390.1.2.3.4 conn=wye Kv=0.2200 Kva=112.5 %R=0.565
New Transformer.331571013_331728736 phases=3 windings=2 Xhl=3.840
~ wdg=1 bus=node_443190491.1.2.3 conn=delta Kv=13.8 Kva=112.5 %R=0.565
~ wdg=2 bus=node_418070123.1.2.3.4 conn=wye Kv=0.2200 Kva=112.5 %R=0.565
New Transformer.1007084725_1007084735 phases=3 windings=2 Xhl=3.770
~ wdg=1 bus=node_1212664337.1.2.3 conn=delta Kv=13.8 Kva=75.0 %R=0.670
~ wdg=2 bus=node_1212664340.1.2.3.4 conn=wye Kv=0.2200 Kva=75.0 %R=0.670
New Transformer.2179411114_2179411113 phases=3 windings=2 Xhl=3.770
~ wdg=1 bus=node_2486419232.1.2.3 conn=delta Kv=13.8 Kva=75.0 %R=0.670
~ wdg=2 bus=node_2019267378.1.2.3.4 conn=wye Kv=0.2200 Kva=75.0 %R=0.670
New Transformer.1051420268_1368562337 phases=3 windings=2 Xhl=3.770
~ wdg=1 bus=node_433096261.1.2.3 conn=delta Kv=13.8 Kva=75.0 %R=0.670
~ wdg=2 bus=node_418111837.1.2.3.4 conn=wye Kv=0.2200 Kva=75.0 %R=0.670
New Transformer.2232626656_2232626655 phases=3 windings=2 Xhl=3.770
~ wdg=1 bus=node_425920457.1.2.3 conn=delta Kv=13.8 Kva=75.0 %R=0.670
~ wdg=2 bus=node_460696385.1.2.3.4 conn=wye Kv=0.2200 Kva=75.0 %R=0.670
New Transformer.2306431995_2306431994 phases=3 windings=2 Xhl=3.770
~ wdg=1 bus=node_2579234203.1.2.3 conn=delta Kv=13.8 Kva=75.0 %R=0.670
~ wdg=2 bus=node_2579234215.1.2.3.4 conn=wye Kv=0.2200 Kva=75.0 %R=0.670
New Transformer.1055066287_1055066286 phases=3 windings=2 Xhl=3.770
~ wdg=1 bus=node_1321780179.1.2.3 conn=delta Kv=13.8 Kva=75.0 %R=0.670
~ wdg=2 bus=node_1321780153.1.2.3.4 conn=wye Kv=0.2200 Kva=75.0 %R=0.670
New Transformer.2240291501_2240291500 phases=3 windings=2 Xhl=3.770
~ wdg=1 bus=node_2546277636.1.2.3 conn=delta Kv=13.8 Kva=75.0 %R=0.670
~ wdg=2 bus=node_2546277647.1.2.3.4 conn=wye Kv=0.2200 Kva=75.0 %R=0.670
New Transformer.1080782635_2167954867 phases=3 windings=2 Xhl=3.770
~ wdg=1 bus=node_433613198.1.2.3 conn=delta Kv=13.8 Kva=75.0 %R=0.670
~ wdg=2 bus=node_413848180.1.2.3.4 conn=wye Kv=0.2200 Kva=75.0 %R=0.670
New Transformer.330772997_331766416 phases=3 windings=2 Xhl=3.770
~ wdg=1 bus=node_426110273.1.2.3 conn=delta Kv=13.8 Kva=75.0 %R=0.670
~ wdg=2 bus=node_418077321.1.2.3.4 conn=wye Kv=0.2200 Kva=75.0 %R=0.670
New Transformer.2399143914_2399143913 phases=3 windings=2 Xhl=3.770
~ wdg=1 bus=node_2583562615.1.2.3 conn=delta Kv=13.8 Kva=75.0 %R=0.670
~ wdg=2 bus=node_2583562787.1.2.3.4 conn=wye Kv=0.2200 Kva=75.0 %R=0.670
New Transformer.330773951_331776006 phases=3 windings=2 Xhl=3.770
~ wdg=1 bus=node_432203250.1.2.3 conn=delta Kv=13.8 Kva=75.0 %R=0.670
~ wdg=2 bus=node_418742292.1.2.3.4 conn=wye Kv=0.2200 Kva=75.0 %R=0.670
New Transformer.330773208_331722494 phases=3 windings=2 Xhl=3.770
~ wdg=1 bus=node_442735530.1.2.3 conn=delta Kv=13.8 Kva=75.0 %R=0.670
~ wdg=2 bus=node_413897860.1.2.3.4 conn=wye Kv=0.2200 Kva=75.0 %R=0.670
New Transformer.330773392_542705778 phases=3 windings=2 Xhl=3.770
~ wdg=1 bus=node_444465136.1.2.3 conn=delta Kv=13.8 Kva=75.0 %R=0.670
~ wdg=2 bus=node_418078440.1.2.3.4 conn=wye Kv=0.2200 Kva=75.0 %R=0.670
New Transformer.330773334_331766422 phases=3 windings=2 Xhl=3.770
~ wdg=1 bus=node_426108158.1.2.3 conn=delta Kv=13.8 Kva=75.0 %R=0.670
~ wdg=2 bus=node_418121942.1.2.3.4 conn=wye Kv=0.2200 Kva=75.0 %R=0.670
New Transformer.330772340_331732838 phases=3 windings=2 Xhl=3.770
~ wdg=1 bus=node_427476468.1.2.3 conn=delta Kv=13.8 Kva=75.0 %R=0.670
~ wdg=2 bus=node_418122146.1.2.3.4 conn=wye Kv=0.2200 Kva=75.0 %R=0.670
New Transformer.330772709_2236160616 phases=3 windings=2 Xhl=3.770
~ wdg=1 bus=node_427476354.1.2.3 conn=delta Kv=13.8 Kva=75.0 %R=0.670
~ wdg=2 bus=node_418845558.1.2.3.4 conn=wye Kv=0.2200 Kva=75.0 %R=0.670
New Transformer.330772547_331573798 phases=3 windings=2 Xhl=3.770
~ wdg=1 bus=node_444688956.1.2.3 conn=delta Kv=13.8 Kva=75.0 %R=0.670
~ wdg=2 bus=node_418080696.1.2.3.4 conn=wye Kv=0.2200 Kva=75.0 %R=0.670
New Transformer.330772723_331778184 phases=3 windings=2 Xhl=3.770
~ wdg=1 bus=node_444465012.1.2.3 conn=delta Kv=13.8 Kva=75.0 %R=0.670
~ wdg=2 bus=node_499016606.1.2.3.4 conn=wye Kv=0.2200 Kva=75.0 %R=0.670
New Transformer.330772299_1789936725 phases=3 windings=2 Xhl=3.770
~ wdg=1 bus=node_443043195.1.2.3 conn=delta Kv=13.8 Kva=75.0 %R=0.670
~ wdg=2 bus=node_423780452.1.2.3.4 conn=wye Kv=0.2200 Kva=75.0 %R=0.670
New Transformer.330772305_331720101 phases=3 windings=2 Xhl=3.770
~ wdg=1 bus=node_433270450.1.2.3 conn=delta Kv=13.8 Kva=75.0 %R=0.670
~ wdg=2 bus=node_419959267.1.2.3.4 conn=wye Kv=0.2200 Kva=75.0 %R=0.670
New Transformer.330772316_331763420 phases=3 windings=2 Xhl=3.770
~ wdg=1 bus=node_432757241.1.2.3 conn=delta Kv=13.8 Kva=75.0 %R=0.670
~ wdg=2 bus=node_418070009.1.2.3.4 conn=wye Kv=0.2200 Kva=75.0 %R=0.670
New Transformer.330772325_331731933 phases=3 windings=2 Xhl=3.770
~ wdg=1 bus=node_432923202.1.2.3 conn=delta Kv=13.8 Kva=75.0 %R=0.670
~ wdg=2 bus=node_418121951.1.2.3.4 conn=wye Kv=0.2200 Kva=75.0 %R=0.670
New Transformer.330773435_921814450 phases=3 windings=2 Xhl=3.770
~ wdg=1 bus=node_444463733.1.2.3 conn=delta Kv=13.8 Kva=75.0 %R=0.670
~ wdg=2 bus=node_418077147.1.2.3.4 conn=wye Kv=0.2200 Kva=75.0 %R=0.670
New Transformer.330773440_331763427 phases=3 windings=2 Xhl=3.770
~ wdg=1 bus=node_432757180.1.2.3 conn=delta Kv=13.8 Kva=75.0 %R=0.670
~ wdg=2 bus=node_418071413.1.2.3.4 conn=wye Kv=0.2200 Kva=75.0 %R=0.670
New Transformer.330773445_331764723 phases=3 windings=2 Xhl=3.770
~ wdg=1 bus=node_428543722.1.2.3 conn=delta Kv=13.8 Kva=75.0 %R=0.670
~ wdg=2 bus=node_423723008.1.2.3.4 conn=wye Kv=0.2200 Kva=75.0 %R=0.670
New Transformer.330773380_331720640 phases=3 windings=2 Xhl=3.770
~ wdg=1 bus=node_442419444.1.2.3 conn=delta Kv=13.8 Kva=75.0 %R=0.670
~ wdg=2 bus=node_492833105.1.2.3.4 conn=wye Kv=0.2200 Kva=75.0 %R=0.670
New Transformer.330773627_331763405 phases=3 windings=2 Xhl=3.770
~ wdg=1 bus=node_426468991.1.2.3 conn=delta Kv=13.8 Kva=75.0 %R=0.670
~ wdg=2 bus=node_418069949.1.2.3.4 conn=wye Kv=0.2200 Kva=75.0 %R=0.670
New Transformer.2435866017_2435866022 phases=3 windings=2 Xhl=3.770
~ wdg=1 bus=node_2606522495.1.2.3 conn=delta Kv=13.8 Kva=75.0 %R=0.670
~ wdg=2 bus=node_2606522412.1.2.3.4 conn=wye Kv=0.2200 Kva=75.0 %R=0.670
New Transformer.330773586_331573757 phases=3 windings=2 Xhl=3.770
~ wdg=1 bus=node_427477634.1.2.3 conn=delta Kv=13.8 Kva=75.0 %R=0.670
~ wdg=2 bus=node_418071869.1.2.3.4 conn=wye Kv=0.2200 Kva=75.0 %R=0.670
New Transformer.330773289_331777540 phases=3 windings=2 Xhl=3.770
~ wdg=1 bus=node_426468586.1.2.3 conn=delta Kv=13.8 Kva=75.0 %R=0.670
~ wdg=2 bus=node_418079925.1.2.3.4 conn=wye Kv=0.2200 Kva=75.0 %R=0.670
New Transformer.2399534434_2399534438 phases=3 windings=2 Xhl=3.770
~ wdg=1 bus=node_430965788.1.2.3 conn=delta Kv=13.8 Kva=75.0 %R=0.670
~ wdg=2 bus=node_419781177.1.2.3.4 conn=wye Kv=0.2200 Kva=75.0 %R=0.670
New Transformer.330773650_331720834 phases=3 windings=2 Xhl=3.770
~ wdg=1 bus=node_426470185.1.2.3 conn=delta Kv=13.8 Kva=75.0 %R=0.670
~ wdg=2 bus=node_420064618.1.2.3.4 conn=wye Kv=0.2200 Kva=75.0 %R=0.670
New Transformer.330773098_331779412 phases=3 windings=2 Xhl=3.770
~ wdg=1 bus=node_426108434.1.2.3 conn=delta Kv=13.8 Kva=75.0 %R=0.670
~ wdg=2 bus=node_418114705.1.2.3.4 conn=wye Kv=0.2200 Kva=75.0 %R=0.670
New Transformer.330773491_1563449820 phases=3 windings=2 Xhl=3.770
~ wdg=1 bus=node_442892914.1.2.3 conn=delta Kv=13.8 Kva=75.0 %R=0.670
~ wdg=2 bus=node_423781625.1.2.3.4 conn=wye Kv=0.2200 Kva=75.0 %R=0.670
New Transformer.330773270_331731894 phases=3 windings=2 Xhl=3.770
~ wdg=1 bus=node_426468970.1.2.3 conn=delta Kv=13.8 Kva=75.0 %R=0.670
~ wdg=2 bus=node_418070168.1.2.3.4 conn=wye Kv=0.2200 Kva=75.0 %R=0.670
New Transformer.330772573_331763413 phases=3 windings=2 Xhl=3.770
~ wdg=1 bus=node_443189457.1.2.3 conn=delta Kv=13.8 Kva=75.0 %R=0.670
~ wdg=2 bus=node_418080288.1.2.3.4 conn=wye Kv=0.2200 Kva=75.0 %R=0.670
New Transformer.330772368_331777029 phases=3 windings=2 Xhl=3.770
~ wdg=1 bus=node_425920371.1.2.3 conn=delta Kv=13.8 Kva=75.0 %R=0.670
~ wdg=2 bus=node_418105197.1.2.3.4 conn=wye Kv=0.2200 Kva=75.0 %R=0.670
New Transformer.330772379_331766411 phases=3 windings=2 Xhl=3.770
~ wdg=1 bus=node_442573080.1.2.3 conn=delta Kv=13.8 Kva=75.0 %R=0.670
~ wdg=2 bus=node_418072211.1.2.3.4 conn=wye Kv=0.2200 Kva=75.0 %R=0.670
New Transformer.330772617_331763834 phases=3 windings=2 Xhl=3.770
~ wdg=1 bus=node_426109044.1.2.3 conn=delta Kv=13.8 Kva=75.0 %R=0.670
~ wdg=2 bus=node_523900336.1.2.3.4 conn=wye Kv=0.2200 Kva=75.0 %R=0.670
New Transformer.330772505_331720555 phases=3 windings=2 Xhl=3.770
~ wdg=1 bus=node_427476649.1.2.3 conn=delta Kv=13.8 Kva=75.0 %R=0.670
~ wdg=2 bus=node_418676407.1.2.3.4 conn=wye Kv=0.2200 Kva=75.0 %R=0.670
New Transformer.330772682_1569933655 phases=1 windings=3 Xhl=3.770 Xht=3.770 Xlt=1.885
~ wdg=1 bus=node_432574243.1 conn=wye Kv=7.9674 Kva=75.0 %R=0.670
~ wdg=2 bus=node_418529754.1.4 conn=wye Kv=0.1100 Kva=75.0 %R=0.670
~ wdg=3 bus=node_418529754.4.2 conn=wye Kv=0.1100 Kva=75.0 %R=0.670
New Transformer.330772888_1489915052 phases=3 windings=2 Xhl=3.770
~ wdg=1 bus=node_1797438642.1.2.3 conn=delta Kv=13.8 Kva=75.0 %R=0.670
~ wdg=2 bus=node_419117119.1.2.3.4 conn=wye Kv=0.2200 Kva=75.0 %R=0.670
New Transformer.330772938_331763693 phases=3 windings=2 Xhl=3.770
~ wdg=1 bus=node_433269890.1.2.3 conn=delta Kv=13.8 Kva=75.0 %R=0.670
~ wdg=2 bus=node_420031753.1.2.3.4 conn=wye Kv=0.2200 Kva=75.0 %R=0.670
New Transformer.330772771_331720797 phases=3 windings=2 Xhl=3.770
~ wdg=1 bus=node_431138952.1.2.3 conn=delta Kv=13.8 Kva=75.0 %R=0.670
~ wdg=2 bus=node_420063457.1.2.3.4 conn=wye Kv=0.2200 Kva=75.0 %R=0.670
New Transformer.330772683_331720596 phases=3 windings=2 Xhl=3.770
~ wdg=1 bus=node_502365370.1.2.3 conn=delta Kv=13.8 Kva=75.0 %R=0.670
~ wdg=2 bus=node_520421219.1.2.3.4 conn=wye Kv=0.2200 Kva=75.0 %R=0.670
New Transformer.330772775_2624076282 phases=3 windings=2 Xhl=3.770
~ wdg=1 bus=node_426107973.1.2.3 conn=delta Kv=13.8 Kva=75.0 %R=0.670
~ wdg=2 bus=node_417230615.1.2.3.4 conn=wye Kv=0.2200 Kva=75.0 %R=0.670
New Transformer.330772689_331574054 phases=3 windings=2 Xhl=3.770
~ wdg=1 bus=node_428545354.1.2.3 conn=delta Kv=13.8 Kva=75.0 %R=0.670
~ wdg=2 bus=node_418080372.1.2.3.4 conn=wye Kv=0.2200 Kva=75.0 %R=0.670
New Transformer.330772911_331722987 phases=3 windings=2 Xhl=3.770
~ wdg=1 bus=node_432924450.1.2.3 conn=delta Kv=13.8 Kva=75.0 %R=0.670
~ wdg=2 bus=node_417230378.1.2.3.4 conn=wye Kv=0.2200 Kva=75.0 %R=0.670
New Transformer.330774628_331731340 phases=3 windings=2 Xhl=3.770
~ wdg=1 bus=node_443352004.1.2.3 conn=delta Kv=13.8 Kva=75.0 %R=0.670
~ wdg=2 bus=node_418106247.1.2.3.4 conn=wye Kv=0.2200 Kva=75.0 %R=0.670
New Transformer.330774566_331721044 phases=3 windings=2 Xhl=3.770
~ wdg=1 bus=node_426467636.1.2.3 conn=delta Kv=13.8 Kva=75.0 %R=0.670
~ wdg=2 bus=node_418106484.1.2.3.4 conn=wye Kv=0.2200 Kva=75.0 %R=0.670
New Transformer.330774236_331731393 phases=3 windings=2 Xhl=3.770
~ wdg=1 bus=node_427477124.1.2.3 conn=delta Kv=13.8 Kva=75.0 %R=0.670
~ wdg=2 bus=node_418115347.1.2.3.4 conn=wye Kv=0.2200 Kva=75.0 %R=0.670
New Transformer.330774152_331763423 phases=3 windings=2 Xhl=3.770
~ wdg=1 bus=node_444687786.1.2.3 conn=delta Kv=13.8 Kva=75.0 %R=0.670
~ wdg=2 bus=node_418070753.1.2.3.4 conn=wye Kv=0.2200 Kva=75.0 %R=0.670
New Transformer.330774096_331730032 phases=3 windings=2 Xhl=3.770
~ wdg=1 bus=node_435965967.1.2.3 conn=delta Kv=13.8 Kva=75.0 %R=0.670
~ wdg=2 bus=node_423726524.1.2.3.4 conn=wye Kv=0.2200 Kva=75.0 %R=0.670
New Transformer.330774108_331724371 phases=3 windings=2 Xhl=3.770
~ wdg=1 bus=node_432757226.1.2.3 conn=delta Kv=13.8 Kva=75.0 %R=0.670
~ wdg=2 bus=node_418112347.1.2.3.4 conn=wye Kv=0.2200 Kva=75.0 %R=0.670
New Transformer.330774083_331765124 phases=3 windings=2 Xhl=3.770
~ wdg=1 bus=node_502365371.1.2.3 conn=delta Kv=13.8 Kva=75.0 %R=0.670
~ wdg=2 bus=node_520544163.1.2.3.4 conn=wye Kv=0.2200 Kva=75.0 %R=0.670
New Transformer.330774087_331722609 phases=3 windings=2 Xhl=3.770
~ wdg=1 bus=node_442250124.1.2.3 conn=delta Kv=13.8 Kva=75.0 %R=0.670
~ wdg=2 bus=node_418089358.1.2.3.4 conn=wye Kv=0.2200 Kva=75.0 %R=0.670
New Transformer.1121352539_1121352538 phases=3 windings=2 Xhl=3.770
~ wdg=1 bus=node_444613611.1.2.3 conn=delta Kv=13.8 Kva=75.0 %R=0.670
~ wdg=2 bus=node_418087453.1.2.3.4 conn=wye Kv=0.2200 Kva=75.0 %R=0.670
New Transformer.330774487_331777525 phases=3 windings=2 Xhl=3.770
~ wdg=1 bus=node_426108593.1.2.3 conn=delta Kv=13.8 Kva=75.0 %R=0.670
~ wdg=2 bus=node_527078658.1.2.3.4 conn=wye Kv=0.2200 Kva=75.0 %R=0.670
New Transformer.330774459_331729503 phases=3 windings=2 Xhl=3.770
~ wdg=1 bus=node_427287128.1.2.3 conn=delta Kv=13.8 Kva=75.0 %R=0.670
~ wdg=2 bus=node_418677208.1.2.3.4 conn=wye Kv=0.2200 Kva=75.0 %R=0.670
New Transformer.330774562_331766421 phases=3 windings=2 Xhl=3.770
~ wdg=1 bus=node_443044665.1.2.3 conn=delta Kv=13.8 Kva=75.0 %R=0.670
~ wdg=2 bus=node_418113589.1.2.3.4 conn=wye Kv=0.2200 Kva=75.0 %R=0.670
New Transformer.330773846_331764360 phases=3 windings=2 Xhl=3.770
~ wdg=1 bus=node_442248350.1.2.3 conn=delta Kv=13.8 Kva=75.0 %R=0.670
~ wdg=2 bus=node_418088263.1.2.3.4 conn=wye Kv=0.2200 Kva=75.0 %R=0.670
New Transformer.330773857_331728746 phases=3 windings=2 Xhl=3.770
~ wdg=1 bus=node_444690208.1.2.3 conn=delta Kv=13.8 Kva=75.0 %R=0.670
~ wdg=2 bus=node_418080393.1.2.3.4 conn=wye Kv=0.2200 Kva=75.0 %R=0.670
New Transformer.330774582_331778449 phases=3 windings=2 Xhl=3.770
~ wdg=1 bus=node_444463658.1.2.3 conn=delta Kv=13.8 Kva=75.0 %R=0.670
~ wdg=2 bus=node_418079205.1.2.3.4 conn=wye Kv=0.2200 Kva=75.0 %R=0.670
New Transformer.330774054_331779415 phases=3 windings=2 Xhl=3.770
~ wdg=1 bus=node_432574473.1.2.3 conn=delta Kv=13.8 Kva=75.0 %R=0.670
~ wdg=2 bus=node_418104942.1.2.3.4 conn=wye Kv=0.2200 Kva=75.0 %R=0.670
New Transformer.330774534_331731915 phases=3 windings=2 Xhl=3.770
~ wdg=1 bus=node_426469436.1.2.3 conn=delta Kv=13.8 Kva=75.0 %R=0.670
~ wdg=2 bus=node_418080381.1.2.3.4 conn=wye Kv=0.2200 Kva=75.0 %R=0.670
New Transformer.330774611_331729895 phases=3 windings=2 Xhl=3.770
~ wdg=1 bus=node_433095878.1.2.3 conn=delta Kv=13.8 Kva=75.0 %R=0.670
~ wdg=2 bus=node_418077489.1.2.3.4 conn=wye Kv=0.2200 Kva=75.0 %R=0.670
New Transformer.330773997_331777923 phases=3 windings=2 Xhl=3.770
~ wdg=1 bus=node_432757846.1.2.3 conn=delta Kv=13.8 Kva=75.0 %R=0.670
~ wdg=2 bus=node_419924889.1.2.3.4 conn=wye Kv=0.2200 Kva=75.0 %R=0.670
New Transformer.671354300_671354299 phases=3 windings=2 Xhl=3.770
~ wdg=1 bus=node_943289177.1.2.3 conn=delta Kv=13.8 Kva=75.0 %R=0.670
~ wdg=2 bus=node_943289045.1.2.3.4 conn=wye Kv=0.2200 Kva=75.0 %R=0.670
New Transformer.330774010_526354226 phases=3 windings=2 Xhl=3.770
~ wdg=1 bus=node_426467626.1.2.3 conn=delta Kv=13.8 Kva=75.0 %R=0.670
~ wdg=2 bus=node_418111429.1.2.3.4 conn=wye Kv=0.2200 Kva=75.0 %R=0.670
New Transformer.330774545_331721061 phases=3 windings=2 Xhl=3.770
~ wdg=1 bus=node_428791184.1.2.3 conn=delta Kv=13.8 Kva=75.0 %R=0.670
~ wdg=2 bus=node_418070714.1.2.3.4 conn=wye Kv=0.2200 Kva=75.0 %R=0.670
New Transformer.330774285_331766582 phases=3 windings=2 Xhl=3.770
~ wdg=1 bus=node_428543820.1.2.3 conn=delta Kv=13.8 Kva=75.0 %R=0.670
~ wdg=2 bus=node_418080846.1.2.3.4 conn=wye Kv=0.2200 Kva=75.0 %R=0.670
New Transformer.330774353_331723959 phases=3 windings=2 Xhl=3.770
~ wdg=1 bus=node_426467301.1.2.3 conn=delta Kv=13.8 Kva=75.0 %R=0.670
~ wdg=2 bus=node_418089193.1.2.3.4 conn=wye Kv=0.2200 Kva=75.0 %R=0.670
New Transformer.330774357_331779422 phases=3 windings=2 Xhl=3.770
~ wdg=1 bus=node_426304643.1.2.3 conn=delta Kv=13.8 Kva=75.0 %R=0.670
~ wdg=2 bus=node_418095470.1.2.3.4 conn=wye Kv=0.2200 Kva=75.0 %R=0.670
New Transformer.330774373_331720761 phases=3 windings=2 Xhl=3.770
~ wdg=1 bus=node_425921027.1.2.3 conn=delta Kv=13.8 Kva=75.0 %R=0.670
~ wdg=2 bus=node_418079037.1.2.3.4 conn=wye Kv=0.2200 Kva=75.0 %R=0.670
New Transformer.330774375_331574059 phases=3 windings=2 Xhl=3.770
~ wdg=1 bus=node_433269311.1.2.3 conn=delta Kv=13.8 Kva=75.0 %R=0.670
~ wdg=2 bus=node_420030601.1.2.3.4 conn=wye Kv=0.2200 Kva=75.0 %R=0.670
New Transformer.1119709341_1119709340 phases=3 windings=2 Xhl=3.770
~ wdg=1 bus=node_1457352244.1.2.3 conn=delta Kv=13.8 Kva=75.0 %R=0.670
~ wdg=2 bus=node_1457351736.1.2.3.4 conn=wye Kv=0.2200 Kva=75.0 %R=0.670
New Transformer.1119709315_1119709314 phases=3 windings=2 Xhl=3.770
~ wdg=1 bus=node_1457352413.1.2.3 conn=delta Kv=13.8 Kva=75.0 %R=0.670
~ wdg=2 bus=node_1457350981.1.2.3.4 conn=wye Kv=0.2200 Kva=75.0 %R=0.670
New Transformer.330773894_533108688 phases=3 windings=2 Xhl=3.770
~ wdg=1 bus=node_426469836.1.2.3 conn=delta Kv=13.8 Kva=75.0 %R=0.670
~ wdg=2 bus=node_418078857.1.2.3.4 conn=wye Kv=0.2200 Kva=75.0 %R=0.670
New Transformer.330773773_331722985 phases=3 windings=2 Xhl=3.770
~ wdg=1 bus=node_442572440.1.2.3 conn=delta Kv=13.8 Kva=75.0 %R=0.670
~ wdg=2 bus=node_418071050.1.2.3.4 conn=wye Kv=0.2200 Kva=75.0 %R=0.670
New Transformer.331239255_331777659 phases=3 windings=2 Xhl=3.770
~ wdg=1 bus=node_428545169.1.2.3 conn=delta Kv=13.8 Kva=75.0 %R=0.670
~ wdg=2 bus=node_420063463.1.2.3.4 conn=wye Kv=0.2200 Kva=75.0 %R=0.670
New Transformer.1133955332_1133955331 phases=3 windings=2 Xhl=3.770
~ wdg=1 bus=node_1446910657.1.2.3 conn=delta Kv=13.8 Kva=75.0 %R=0.670
~ wdg=2 bus=node_413847430.1.2.3.4 conn=wye Kv=0.2200 Kva=75.0 %R=0.670
New Transformer.330774673_331763396 phases=3 windings=2 Xhl=3.770
~ wdg=1 bus=node_426660944.1.2.3 conn=delta Kv=13.8 Kva=75.0 %R=0.670
~ wdg=2 bus=node_418077021.1.2.3.4 conn=wye Kv=0.2200 Kva=75.0 %R=0.670
New Transformer.1120476743_1120476742 phases=3 windings=2 Xhl=3.770
~ wdg=1 bus=node_1389874259.1.2.3 conn=delta Kv=13.8 Kva=75.0 %R=0.670
~ wdg=2 bus=node_1389874234.1.2.3.4 conn=wye Kv=0.2200 Kva=75.0 %R=0.670
New Transformer.331240129_331766401 phases=3 windings=2 Xhl=3.770
~ wdg=1 bus=node_426469671.1.2.3 conn=delta Kv=13.8 Kva=75.0 %R=0.670
~ wdg=2 bus=node_418086904.1.2.3.4 conn=wye Kv=0.2200 Kva=75.0 %R=0.670
New Transformer.331240134_331723019 phases=3 windings=2 Xhl=3.770
~ wdg=1 bus=node_442891804.1.2.3 conn=delta Kv=13.8 Kva=75.0 %R=0.670
~ wdg=2 bus=node_418088650.1.2.3.4 conn=wye Kv=0.2200 Kva=75.0 %R=0.670
New Transformer.331239588_331767026 phases=3 windings=2 Xhl=3.770
~ wdg=1 bus=node_428543260.1.2.3 conn=delta Kv=13.8 Kva=75.0 %R=0.670
~ wdg=2 bus=node_423723389.1.2.3.4 conn=wye Kv=0.2200 Kva=75.0 %R=0.670
New Transformer.331239674_331731913 phases=3 windings=2 Xhl=3.770
~ wdg=1 bus=node_426109772.1.2.3 conn=delta Kv=13.8 Kva=75.0 %R=0.670
~ wdg=2 bus=node_418078917.1.2.3.4 conn=wye Kv=0.2200 Kva=75.0 %R=0.670
New Transformer.331239732_331731882 phases=3 windings=2 Xhl=3.770
~ wdg=1 bus=node_443354553.1.2.3 conn=delta Kv=13.8 Kva=75.0 %R=0.670
~ wdg=2 bus=node_418077114.1.2.3.4 conn=wye Kv=0.2200 Kva=75.0 %R=0.670
New Transformer.331239589_331766420 phases=3 windings=2 Xhl=3.770
~ wdg=1 bus=node_432923182.1.2.3 conn=delta Kv=13.8 Kva=75.0 %R=0.670
~ wdg=2 bus=node_418114504.1.2.3.4 conn=wye Kv=0.2200 Kva=75.0 %R=0.670
New Transformer.331239990_331777504 phases=3 windings=2 Xhl=3.770
~ wdg=1 bus=node_426469796.1.2.3 conn=delta Kv=13.8 Kva=75.0 %R=0.670
~ wdg=2 bus=node_418080387.1.2.3.4 conn=wye Kv=0.2200 Kva=75.0 %R=0.670
New Transformer.707191960_707191959 phases=3 windings=2 Xhl=3.770
~ wdg=1 bus=node_979873885.1.2.3 conn=delta Kv=13.8 Kva=75.0 %R=0.670
~ wdg=2 bus=node_979873996.1.2.3.4 conn=wye Kv=0.2200 Kva=75.0 %R=0.670
New Transformer.702106662_702106685 phases=3 windings=2 Xhl=3.770
~ wdg=1 bus=node_976894194.1.2.3 conn=delta Kv=13.8 Kva=75.0 %R=0.670
~ wdg=2 bus=node_974382768.1.2.3.4 conn=wye Kv=0.2200 Kva=75.0 %R=0.670
New Transformer.702106698_2270156215 phases=3 windings=2 Xhl=3.770
~ wdg=1 bus=node_976894216.1.2.3 conn=delta Kv=13.8 Kva=75.0 %R=0.670
~ wdg=2 bus=node_974382864.1.2.3.4 conn=wye Kv=0.2200 Kva=75.0 %R=0.670
New Transformer.702106740_702106751 phases=3 windings=2 Xhl=3.770
~ wdg=1 bus=node_976894786.1.2.3 conn=delta Kv=13.8 Kva=75.0 %R=0.670
~ wdg=2 bus=node_974383198.1.2.3.4 conn=wye Kv=0.2200 Kva=75.0 %R=0.670
New Transformer.702106940_702106945 phases=3 windings=2 Xhl=3.770
~ wdg=1 bus=node_976894575.1.2.3 conn=delta Kv=13.8 Kva=75.0 %R=0.670
~ wdg=2 bus=node_974383953.1.2.3.4 conn=wye Kv=0.2200 Kva=75.0 %R=0.670
New Transformer.330774960_331729478 phases=3 windings=2 Xhl=3.770
~ wdg=1 bus=node_442571985.1.2.3 conn=delta Kv=13.8 Kva=75.0 %R=0.670
~ wdg=2 bus=node_527166903.1.2.3.4 conn=wye Kv=0.2200 Kva=75.0 %R=0.670
New Transformer.330774988_331721397 phases=3 windings=2 Xhl=3.770
~ wdg=1 bus=node_427478363.1.2.3 conn=delta Kv=13.8 Kva=75.0 %R=0.670
~ wdg=2 bus=node_418906341.1.2.3.4 conn=wye Kv=0.2200 Kva=75.0 %R=0.670
New Transformer.331239199_331729819 phases=3 windings=2 Xhl=3.770
~ wdg=1 bus=node_444612579.1.2.3 conn=delta Kv=13.8 Kva=75.0 %R=0.670
~ wdg=2 bus=node_482955166.1.2.3.4 conn=wye Kv=0.2200 Kva=75.0 %R=0.670
New Transformer.331239200_1994945166 phases=3 windings=2 Xhl=3.770
~ wdg=1 bus=node_443044215.1.2.3 conn=delta Kv=13.8 Kva=75.0 %R=0.670
~ wdg=2 bus=node_418095524.1.2.3.4 conn=wye Kv=0.2200 Kva=75.0 %R=0.670
New Transformer.330775287_331766139 phases=3 windings=2 Xhl=3.770
~ wdg=1 bus=node_444464372.1.2.3 conn=delta Kv=13.8 Kva=75.0 %R=0.670
~ wdg=2 bus=node_484242882.1.2.3.4 conn=wye Kv=0.2200 Kva=75.0 %R=0.670
New Transformer.330775010_331723005 phases=3 windings=2 Xhl=3.770
~ wdg=1 bus=node_428791843.1.2.3 conn=delta Kv=13.8 Kva=75.0 %R=0.670
~ wdg=2 bus=node_418114321.1.2.3.4 conn=wye Kv=0.2200 Kva=75.0 %R=0.670
New Transformer.331239855_331722938 phases=3 windings=2 Xhl=3.770
~ wdg=1 bus=node_426307862.1.2.3 conn=delta Kv=13.8 Kva=75.0 %R=0.670
~ wdg=2 bus=node_418104303.1.2.3.4 conn=wye Kv=0.2200 Kva=75.0 %R=0.670
New Transformer.331239840_1018171810 phases=3 windings=2 Xhl=3.770
~ wdg=1 bus=node_425920107.1.2.3 conn=delta Kv=13.8 Kva=75.0 %R=0.670
~ wdg=2 bus=node_418583530.1.2.3.4 conn=wye Kv=0.2200 Kva=75.0 %R=0.670
New Transformer.704104494_704104497 phases=3 windings=2 Xhl=3.770
~ wdg=1 bus=node_976537629.1.2.3 conn=delta Kv=13.8 Kva=75.0 %R=0.670
~ wdg=2 bus=node_976537651.1.2.3.4 conn=wye Kv=0.2200 Kva=75.0 %R=0.670
New Transformer.331239291_579226260 phases=3 windings=2 Xhl=3.770
~ wdg=1 bus=node_427476314.1.2.3 conn=delta Kv=13.8 Kva=75.0 %R=0.670
~ wdg=2 bus=node_418614937.1.2.3.4 conn=wye Kv=0.2200 Kva=75.0 %R=0.670
New Transformer.331239431_331763438 phases=3 windings=2 Xhl=3.770
~ wdg=1 bus=node_426467546.1.2.3 conn=delta Kv=13.8 Kva=75.0 %R=0.670
~ wdg=2 bus=node_418103928.1.2.3.4 conn=wye Kv=0.2200 Kva=75.0 %R=0.670
New Transformer.331239432_331728776 phases=3 windings=2 Xhl=3.770
~ wdg=1 bus=node_443354433.1.2.3 conn=delta Kv=13.8 Kva=75.0 %R=0.670
~ wdg=2 bus=node_418089208.1.2.3.4 conn=wye Kv=0.2200 Kva=75.0 %R=0.670
New Transformer.827200473_827200472 phases=3 windings=2 Xhl=3.770
~ wdg=1 bus=node_427477498.1.2.3 conn=delta Kv=13.8 Kva=75.0 %R=0.670
~ wdg=2 bus=node_461948857.1.2.3.4 conn=wye Kv=0.2200 Kva=75.0 %R=0.670
New Transformer.1155725807_1171974302 phases=3 windings=2 Xhl=3.770
~ wdg=1 bus=node_1317326582.1.2.3 conn=delta Kv=13.8 Kva=75.0 %R=0.670
~ wdg=2 bus=node_463185956.1.2.3.4 conn=wye Kv=0.2200 Kva=75.0 %R=0.670
New Transformer.330775073_331766430 phases=3 windings=2 Xhl=3.770
~ wdg=1 bus=node_443045270.1.2.3 conn=delta Kv=13.8 Kva=75.0 %R=0.670
~ wdg=2 bus=node_418103106.1.2.3.4 conn=wye Kv=0.2200 Kva=75.0 %R=0.670
New Transformer.331240348_331722961 phases=3 windings=2 Xhl=3.770
~ wdg=1 bus=node_443353769.1.2.3 conn=delta Kv=13.8 Kva=75.0 %R=0.670
~ wdg=2 bus=node_418071461.1.2.3.4 conn=wye Kv=0.2200 Kva=75.0 %R=0.670
New Transformer.331240489_331729804 phases=3 windings=2 Xhl=3.770
~ wdg=1 bus=node_426661713.1.2.3 conn=delta Kv=13.8 Kva=75.0 %R=0.670
~ wdg=2 bus=node_420063274.1.2.3.4 conn=wye Kv=0.2200 Kva=75.0 %R=0.670
New Transformer.331240443_331730385 phases=3 windings=2 Xhl=3.770
~ wdg=1 bus=node_427479363.1.2.3 conn=delta Kv=13.8 Kva=75.0 %R=0.670
~ wdg=2 bus=node_418776685.1.2.3.4 conn=wye Kv=0.2200 Kva=75.0 %R=0.670
New Transformer.331240524_331779402 phases=3 windings=2 Xhl=3.770
~ wdg=1 bus=node_442734446.1.2.3 conn=delta Kv=13.8 Kva=75.0 %R=0.670
~ wdg=2 bus=node_417230447.1.2.3.4 conn=wye Kv=0.2200 Kva=75.0 %R=0.670
New Transformer.331240265_331763444 phases=3 windings=2 Xhl=3.770
~ wdg=1 bus=node_432923307.1.2.3 conn=delta Kv=13.8 Kva=75.0 %R=0.670
~ wdg=2 bus=node_418121456.1.2.3.4 conn=wye Kv=0.2200 Kva=75.0 %R=0.670
New Transformer.331240214_331724379 phases=3 windings=2 Xhl=3.770
~ wdg=1 bus=node_433270430.1.2.3 conn=delta Kv=13.8 Kva=75.0 %R=0.670
~ wdg=2 bus=node_484193487.1.2.3.4 conn=wye Kv=0.2200 Kva=75.0 %R=0.670
New Transformer.331240531_331724381 phases=3 windings=2 Xhl=3.770
~ wdg=1 bus=node_443351410.1.2.3 conn=delta Kv=13.8 Kva=75.0 %R=0.670
~ wdg=2 bus=node_418095278.1.2.3.4 conn=wye Kv=0.2200 Kva=75.0 %R=0.670
New Transformer.331240819_331729837 phases=3 windings=2 Xhl=3.770
~ wdg=1 bus=node_433269275.1.2.3 conn=delta Kv=13.8 Kva=75.0 %R=0.670
~ wdg=2 bus=node_420031588.1.2.3.4 conn=wye Kv=0.2200 Kva=75.0 %R=0.670
New Transformer.331240833_331777507 phases=3 windings=2 Xhl=3.770
~ wdg=1 bus=node_432756167.1.2.3 conn=delta Kv=13.8 Kva=75.0 %R=0.670
~ wdg=2 bus=node_418086772.1.2.3.4 conn=wye Kv=0.2200 Kva=75.0 %R=0.670
New Transformer.331240127_331764590 phases=3 windings=2 Xhl=3.770
~ wdg=1 bus=node_428790945.1.2.3 conn=delta Kv=13.8 Kva=75.0 %R=0.670
~ wdg=2 bus=node_420938607.1.2.3.4 conn=wye Kv=0.2200 Kva=75.0 %R=0.670
New Transformer.1161668793_1161668792 phases=3 windings=2 Xhl=3.770
~ wdg=1 bus=node_1433281567.1.2.3 conn=delta Kv=13.8 Kva=75.0 %R=0.670
~ wdg=2 bus=node_1433281514.1.2.3.4 conn=wye Kv=0.2200 Kva=75.0 %R=0.670
New Transformer.331240026_331722983 phases=3 windings=2 Xhl=3.770
~ wdg=1 bus=node_426110268.1.2.3 conn=delta Kv=13.8 Kva=75.0 %R=0.670
~ wdg=2 bus=node_418077645.1.2.3.4 conn=wye Kv=0.2200 Kva=75.0 %R=0.670
New Transformer.1165911558_1165911557 phases=3 windings=2 Xhl=3.770
~ wdg=1 bus=node_1437378450.1.2.3 conn=delta Kv=13.8 Kva=75.0 %R=0.670
~ wdg=2 bus=node_1437378190.1.2.3.4 conn=wye Kv=0.2200 Kva=75.0 %R=0.670
New Transformer.331241223_693425178 phases=3 windings=2 Xhl=3.770
~ wdg=1 bus=node_427479658.1.2.3 conn=delta Kv=13.8 Kva=75.0 %R=0.670
~ wdg=2 bus=node_418585291.1.2.3.4 conn=wye Kv=0.2200 Kva=75.0 %R=0.670
New Transformer.331241548_331729707 phases=3 windings=2 Xhl=3.770
~ wdg=1 bus=node_426663082.1.2.3 conn=delta Kv=13.8 Kva=75.0 %R=0.670
~ wdg=2 bus=node_420144159.1.2.3.4 conn=wye Kv=0.2200 Kva=75.0 %R=0.670
New Transformer.331241400_331729040 phases=3 windings=2 Xhl=3.770
~ wdg=1 bus=node_431682950.1.2.3 conn=delta Kv=13.8 Kva=75.0 %R=0.670
~ wdg=2 bus=node_420031810.1.2.3.4 conn=wye Kv=0.2200 Kva=75.0 %R=0.670
New Transformer.331241215_331573801 phases=3 windings=2 Xhl=3.770
~ wdg=1 bus=node_444688670.1.2.3 conn=delta Kv=13.8 Kva=75.0 %R=0.670
~ wdg=2 bus=node_418079922.1.2.3.4 conn=wye Kv=0.2200 Kva=75.0 %R=0.670
New Transformer.331241325_331777689 phases=3 windings=2 Xhl=3.770
~ wdg=1 bus=node_432397024.1.2.3 conn=delta Kv=13.8 Kva=75.0 %R=0.670
~ wdg=2 bus=node_527424726.1.2.3.4 conn=wye Kv=0.2200 Kva=75.0 %R=0.670
New Transformer.331241327_331764742 phases=3 windings=2 Xhl=3.770
~ wdg=1 bus=node_433271000.1.2.3 conn=delta Kv=13.8 Kva=75.0 %R=0.670
~ wdg=2 bus=node_419857918.1.2.3.4 conn=wye Kv=0.2200 Kva=75.0 %R=0.670
New Transformer.331240874_331766438 phases=3 windings=2 Xhl=3.770
~ wdg=1 bus=node_432575318.1.2.3 conn=delta Kv=13.8 Kva=75.0 %R=0.670
~ wdg=2 bus=node_418111159.1.2.3.4 conn=wye Kv=0.2200 Kva=75.0 %R=0.670
New Transformer.331241224_331779421 phases=3 windings=2 Xhl=3.770
~ wdg=1 bus=node_426305548.1.2.3 conn=delta Kv=13.8 Kva=75.0 %R=0.670
~ wdg=2 bus=node_418095404.1.2.3.4 conn=wye Kv=0.2200 Kva=75.0 %R=0.670
New Transformer.331241193_331766994 phases=3 windings=2 Xhl=3.770
~ wdg=1 bus=node_433272480.1.2.3 conn=delta Kv=13.8 Kva=75.0 %R=0.670
~ wdg=2 bus=node_419993741.1.2.3.4 conn=wye Kv=0.2200 Kva=75.0 %R=0.670
New Transformer.331241396_331729905 phases=3 windings=2 Xhl=3.770
~ wdg=1 bus=node_431863816.1.2.3 conn=delta Kv=13.8 Kva=75.0 %R=0.670
~ wdg=2 bus=node_420033070.1.2.3.4 conn=wye Kv=0.2200 Kva=75.0 %R=0.670
New Transformer.331240941_1583927818 phases=3 windings=2 Xhl=3.770
~ wdg=1 bus=node_426469480.1.2.3 conn=delta Kv=13.8 Kva=75.0 %R=0.670
~ wdg=2 bus=node_418080414.1.2.3.4 conn=wye Kv=0.2200 Kva=75.0 %R=0.670
New Transformer.331240955_331573975 phases=3 windings=2 Xhl=3.770
~ wdg=1 bus=node_426304857.1.2.3 conn=delta Kv=13.8 Kva=75.0 %R=0.670
~ wdg=2 bus=node_420103582.1.2.3.4 conn=wye Kv=0.2200 Kva=75.0 %R=0.670
New Transformer.331241000_331777738 phases=3 windings=2 Xhl=3.770
~ wdg=1 bus=node_426108794.1.2.3 conn=delta Kv=13.8 Kva=75.0 %R=0.670
~ wdg=2 bus=node_418114525.1.2.3.4 conn=wye Kv=0.2200 Kva=75.0 %R=0.670
New Transformer.331241019_331722455 phases=3 windings=2 Xhl=3.770
~ wdg=1 bus=node_443044335.1.2.3 conn=delta Kv=13.8 Kva=75.0 %R=0.670
~ wdg=2 bus=node_418120733.1.2.3.4 conn=wye Kv=0.2200 Kva=75.0 %R=0.670
New Transformer.723753746_1306737198 phases=3 windings=2 Xhl=3.770
~ wdg=1 bus=node_997517740.1.2.3 conn=delta Kv=13.8 Kva=75.0 %R=0.670
~ wdg=2 bus=node_997517715.1.2.3.4 conn=wye Kv=0.2200 Kva=75.0 %R=0.670
New Transformer.1175744616_1175744615 phases=3 windings=2 Xhl=3.770
~ wdg=1 bus=node_433271614.1.2.3 conn=delta Kv=13.8 Kva=75.0 %R=0.670
~ wdg=2 bus=node_460200680.1.2.3.4 conn=wye Kv=0.2200 Kva=75.0 %R=0.670
New Transformer.331240739_331728772 phases=3 windings=2 Xhl=3.770
~ wdg=1 bus=node_426108199.1.2.3 conn=delta Kv=13.8 Kva=75.0 %R=0.670
~ wdg=2 bus=node_418113052.1.2.3.4 conn=wye Kv=0.2200 Kva=75.0 %R=0.670
New Transformer.331240740_1018386511 phases=3 windings=2 Xhl=3.770
~ wdg=1 bus=node_443492688.1.2.3 conn=delta Kv=13.8 Kva=75.0 %R=0.670
~ wdg=2 bus=node_415084263.1.2.3.4 conn=wye Kv=0.2200 Kva=75.0 %R=0.670
New Transformer.331240796_331777419 phases=3 windings=2 Xhl=3.770
~ wdg=1 bus=node_442737024.1.2.3 conn=delta Kv=13.8 Kva=75.0 %R=0.670
~ wdg=2 bus=node_418097396.1.2.3.4 conn=wye Kv=0.2200 Kva=75.0 %R=0.670
New Transformer.331241936_331779349 phases=3 windings=2 Xhl=3.770
~ wdg=1 bus=node_442078088.1.2.3 conn=delta Kv=13.8 Kva=75.0 %R=0.670
~ wdg=2 bus=node_423778448.1.2.3.4 conn=wye Kv=0.2200 Kva=75.0 %R=0.670
New Transformer.331240778_331573319 phases=3 windings=2 Xhl=3.770
~ wdg=1 bus=node_426305983.1.2.3 conn=delta Kv=13.8 Kva=75.0 %R=0.670
~ wdg=2 bus=node_418087552.1.2.3.4 conn=wye Kv=0.2200 Kva=75.0 %R=0.670
New Transformer.331241592_331764499 phases=3 windings=2 Xhl=3.770
~ wdg=1 bus=node_426663832.1.2.3 conn=delta Kv=13.8 Kva=75.0 %R=0.670
~ wdg=2 bus=node_420142356.1.2.3.4 conn=wye Kv=0.2200 Kva=75.0 %R=0.670
New Transformer.331241959_331767023 phases=3 windings=2 Xhl=3.770
~ wdg=1 bus=node_428791144.1.2.3 conn=delta Kv=13.8 Kva=75.0 %R=0.670
~ wdg=2 bus=node_419925555.1.2.3.4 conn=wye Kv=0.2200 Kva=75.0 %R=0.670
New Transformer.331241960_331763703 phases=3 windings=2 Xhl=3.770
~ wdg=1 bus=node_425921546.1.2.3 conn=delta Kv=13.8 Kva=75.0 %R=0.670
~ wdg=2 bus=node_500437755.1.2.3.4 conn=wye Kv=0.2200 Kva=75.0 %R=0.670
New Transformer.331241955_331777505 phases=3 windings=2 Xhl=3.770
~ wdg=1 bus=node_444688940.1.2.3 conn=delta Kv=13.8 Kva=75.0 %R=0.670
~ wdg=2 bus=node_418080486.1.2.3.4 conn=wye Kv=0.2200 Kva=75.0 %R=0.670
New Transformer.331241651_331729807 phases=3 windings=2 Xhl=3.770
~ wdg=1 bus=node_442078469.1.2.3 conn=delta Kv=13.8 Kva=75.0 %R=0.670
~ wdg=2 bus=node_419152463.1.2.3.4 conn=wye Kv=0.2200 Kva=75.0 %R=0.670
New Transformer.331241613_331728747 phases=3 windings=2 Xhl=3.770
~ wdg=1 bus=node_2926640357.1.2.3 conn=delta Kv=13.8 Kva=75.0 %R=0.670
~ wdg=2 bus=node_2926640538.1.2.3.4 conn=wye Kv=0.2200 Kva=75.0 %R=0.670
New Transformer.331242029_331731925 phases=3 windings=2 Xhl=3.770
~ wdg=1 bus=node_432396704.1.2.3 conn=delta Kv=13.8 Kva=75.0 %R=0.670
~ wdg=2 bus=node_418103070.1.2.3.4 conn=wye Kv=0.2200 Kva=75.0 %R=0.670
New Transformer.331241914_331763772 phases=3 windings=2 Xhl=3.770
~ wdg=1 bus=node_431863682.1.2.3 conn=delta Kv=13.8 Kva=75.0 %R=0.670
~ wdg=2 bus=node_420032368.1.2.3.4 conn=wye Kv=0.2200 Kva=75.0 %R=0.670
New Transformer.331241750_331573752 phases=3 windings=2 Xhl=3.770
~ wdg=1 bus=node_428792731.1.2.3 conn=delta Kv=13.8 Kva=75.0 %R=0.670
~ wdg=2 bus=node_418077018.1.2.3.4 conn=wye Kv=0.2200 Kva=75.0 %R=0.670
New Transformer.331241716_331766091 phases=3 windings=2 Xhl=3.770
~ wdg=1 bus=node_441915876.1.2.3 conn=delta Kv=13.8 Kva=75.0 %R=0.670
~ wdg=2 bus=node_423779063.1.2.3.4 conn=wye Kv=0.2200 Kva=75.0 %R=0.670
New Transformer.331241724_542864656 phases=3 windings=2 Xhl=3.770
~ wdg=1 bus=node_444612339.1.2.3 conn=delta Kv=13.8 Kva=75.0 %R=0.670
~ wdg=2 bus=node_418106436.1.2.3.4 conn=wye Kv=0.2200 Kva=75.0 %R=0.670
New Transformer.331241803_331777432 phases=3 windings=2 Xhl=3.770
~ wdg=1 bus=node_426307062.1.2.3 conn=delta Kv=13.8 Kva=75.0 %R=0.670
~ wdg=2 bus=node_418096967.1.2.3.4 conn=wye Kv=0.2200 Kva=75.0 %R=0.670
New Transformer.743373071_743373070 phases=3 windings=2 Xhl=3.770
~ wdg=1 bus=node_426468641.1.2.3 conn=delta Kv=13.8 Kva=75.0 %R=0.670
~ wdg=2 bus=node_459690137.1.2.3.4 conn=wye Kv=0.2200 Kva=75.0 %R=0.670
New Transformer.331241516_331720929 phases=3 windings=2 Xhl=3.770
~ wdg=1 bus=node_431683954.1.2.3 conn=delta Kv=13.8 Kva=75.0 %R=0.670
~ wdg=2 bus=node_423721082.1.2.3.4 conn=wye Kv=0.2200 Kva=75.0 %R=0.670
New Transformer.331241514_331764055 phases=3 windings=2 Xhl=3.770
~ wdg=1 bus=node_443352574.1.2.3 conn=delta Kv=13.8 Kva=75.0 %R=0.670
~ wdg=2 bus=node_418077669.1.2.3.4 conn=wye Kv=0.2200 Kva=75.0 %R=0.670
New Transformer.331241540_331728716 phases=3 windings=2 Xhl=3.770
~ wdg=1 bus=node_441913612.1.2.3 conn=delta Kv=13.8 Kva=75.0 %R=0.670
~ wdg=2 bus=node_423778979.1.2.3.4 conn=wye Kv=0.2200 Kva=75.0 %R=0.670
New Transformer.1220608223_1220608222 phases=3 windings=2 Xhl=3.770
~ wdg=1 bus=node_1518933916.1.2.3 conn=delta Kv=13.8 Kva=75.0 %R=0.670
~ wdg=2 bus=node_1518933857.1.2.3.4 conn=wye Kv=0.2200 Kva=75.0 %R=0.670
New Transformer.331241485_331573796 phases=3 windings=2 Xhl=3.770
~ wdg=1 bus=node_442572820.1.2.3 conn=delta Kv=13.8 Kva=75.0 %R=0.670
~ wdg=2 bus=node_418076895.1.2.3.4 conn=wye Kv=0.2200 Kva=75.0 %R=0.670
New Transformer.331242702_331722968 phases=3 windings=2 Xhl=3.770
~ wdg=1 bus=node_444690433.1.2.3 conn=delta Kv=13.8 Kva=75.0 %R=0.670
~ wdg=2 bus=node_418070522.1.2.3.4 conn=wye Kv=0.2200 Kva=75.0 %R=0.670
New Transformer.331242717_331777496 phases=3 windings=2 Xhl=3.770
~ wdg=1 bus=node_428792802.1.2.3 conn=delta Kv=13.8 Kva=75.0 %R=0.670
~ wdg=2 bus=node_418077657.1.2.3.4 conn=wye Kv=0.2200 Kva=75.0 %R=0.670
New Transformer.331242305_331766426 phases=3 windings=2 Xhl=3.770
~ wdg=1 bus=node_427477439.1.2.3 conn=delta Kv=13.8 Kva=75.0 %R=0.670
~ wdg=2 bus=node_417230405.1.2.3.4 conn=wye Kv=0.2200 Kva=75.0 %R=0.670
New Transformer.331242380_331720911 phases=3 windings=2 Xhl=3.770
~ wdg=1 bus=node_426305953.1.2.3 conn=delta Kv=13.8 Kva=75.0 %R=0.670
~ wdg=2 bus=node_419993792.1.2.3.4 conn=wye Kv=0.2200 Kva=75.0 %R=0.670
New Transformer.331242428_331722990 phases=3 windings=2 Xhl=3.770
~ wdg=1 bus=node_444613211.1.2.3 conn=delta Kv=13.8 Kva=75.0 %R=0.670
~ wdg=2 bus=node_417230711.1.2.3.4 conn=wye Kv=0.2200 Kva=75.0 %R=0.670
New Transformer.331242698_331766423 phases=3 windings=2 Xhl=3.770
~ wdg=1 bus=node_443189067.1.2.3 conn=delta Kv=13.8 Kva=75.0 %R=0.670
~ wdg=2 bus=node_418121966.1.2.3.4 conn=wye Kv=0.2200 Kva=75.0 %R=0.670
New Transformer.898446882_898446883 phases=3 windings=2 Xhl=3.770
~ wdg=1 bus=node_1161055408.1.2.3 conn=delta Kv=13.8 Kva=75.0 %R=0.670
~ wdg=2 bus=node_1161055376.1.2.3.4 conn=wye Kv=0.2200 Kva=75.0 %R=0.670
New Transformer.771077875_771077874 phases=3 windings=2 Xhl=3.770
~ wdg=1 bus=node_432393275.1.2.3 conn=delta Kv=13.8 Kva=75.0 %R=0.670
~ wdg=2 bus=node_418104561.1.2.3.4 conn=wye Kv=0.2200 Kva=75.0 %R=0.670
New Transformer.331242229_331730037 phases=3 windings=2 Xhl=3.770
~ wdg=1 bus=node_428544040.1.2.3 conn=delta Kv=13.8 Kva=75.0 %R=0.670
~ wdg=2 bus=node_496331939.1.2.3.4 conn=wye Kv=0.2200 Kva=75.0 %R=0.670
New Transformer.331242162_331777914 phases=3 windings=2 Xhl=3.770
~ wdg=1 bus=node_432576952.1.2.3 conn=delta Kv=13.8 Kva=75.0 %R=0.670
~ wdg=2 bus=node_418080492.1.2.3.4 conn=wye Kv=0.2200 Kva=75.0 %R=0.670
New Transformer.331242993_1303984744 phases=3 windings=2 Xhl=3.770
~ wdg=1 bus=node_431861591.1.2.3 conn=delta Kv=13.8 Kva=75.0 %R=0.670
~ wdg=2 bus=node_418114990.1.2.3.4 conn=wye Kv=0.2200 Kva=75.0 %R=0.670
New Transformer.331242997_331573310 phases=3 windings=2 Xhl=3.770
~ wdg=1 bus=node_425920461.1.2.3 conn=delta Kv=13.8 Kva=75.0 %R=0.670
~ wdg=2 bus=node_418086847.1.2.3.4 conn=wye Kv=0.2200 Kva=75.0 %R=0.670
New Transformer.331243002_331776109 phases=3 windings=2 Xhl=3.770
~ wdg=1 bus=node_441913637.1.2.3 conn=delta Kv=13.8 Kva=75.0 %R=0.670
~ wdg=2 bus=node_423760565.1.2.3.4 conn=wye Kv=0.2200 Kva=75.0 %R=0.670
New Transformer.331243034_331779427 phases=3 windings=2 Xhl=3.770
~ wdg=1 bus=node_426471133.1.2.3 conn=delta Kv=13.8 Kva=75.0 %R=0.670
~ wdg=2 bus=node_413828997.1.2.3.4 conn=wye Kv=0.2200 Kva=75.0 %R=0.670
New Transformer.331243007_331779321 phases=3 windings=2 Xhl=3.770
~ wdg=1 bus=node_442573000.1.2.3 conn=delta Kv=13.8 Kva=75.0 %R=0.670
~ wdg=2 bus=node_418097921.1.2.3.4 conn=wye Kv=0.2200 Kva=75.0 %R=0.670
New Transformer.918040139_1388976103 phases=3 windings=2 Xhl=3.770
~ wdg=1 bus=node_1178059029.1.2.3 conn=delta Kv=13.8 Kva=75.0 %R=0.670
~ wdg=2 bus=node_1178059116.1.2.3.4 conn=wye Kv=0.2200 Kva=75.0 %R=0.670
New Transformer.464284542_464284541 phases=3 windings=2 Xhl=3.770
~ wdg=1 bus=node_733977859.1.2.3 conn=delta Kv=13.8 Kva=75.0 %R=0.670
~ wdg=2 bus=node_733977793.1.2.3.4 conn=wye Kv=0.2200 Kva=75.0 %R=0.670
New Transformer.331242789_331763409 phases=3 windings=2 Xhl=3.770
~ wdg=1 bus=node_442572529.1.2.3 conn=delta Kv=13.8 Kva=75.0 %R=0.670
~ wdg=2 bus=node_418077747.1.2.3.4 conn=wye Kv=0.2200 Kva=75.0 %R=0.670
New Transformer.331242821_331779832 phases=3 windings=2 Xhl=3.770
~ wdg=1 bus=node_428543845.1.2.3 conn=delta Kv=13.8 Kva=75.0 %R=0.670
~ wdg=2 bus=node_418078470.1.2.3.4 conn=wye Kv=0.2200 Kva=75.0 %R=0.670
New Transformer.331242927_331764689 phases=3 windings=2 Xhl=3.770
~ wdg=1 bus=node_432753880.1.2.3 conn=delta Kv=13.8 Kva=75.0 %R=0.670
~ wdg=2 bus=node_418071302.1.2.3.4 conn=wye Kv=0.2200 Kva=75.0 %R=0.670
New Transformer.331242936_331729524 phases=3 windings=2 Xhl=3.770
~ wdg=1 bus=node_433096752.1.2.3 conn=delta Kv=13.8 Kva=75.0 %R=0.670
~ wdg=2 bus=node_418674388.1.2.3.4 conn=wye Kv=0.2200 Kva=75.0 %R=0.670
New Transformer.331242518_331777495 phases=3 windings=2 Xhl=3.770
~ wdg=1 bus=node_426660929.1.2.3 conn=delta Kv=13.8 Kva=75.0 %R=0.670
~ wdg=2 bus=node_418077813.1.2.3.4 conn=wye Kv=0.2200 Kva=75.0 %R=0.670
New Transformer.331242524_331766842 phases=3 windings=2 Xhl=3.770
~ wdg=1 bus=node_426662056.1.2.3 conn=delta Kv=13.8 Kva=75.0 %R=0.670
~ wdg=2 bus=node_420062176.1.2.3.4 conn=wye Kv=0.2200 Kva=75.0 %R=0.670
New Transformer.331242528_331766387 phases=3 windings=2 Xhl=3.770
~ wdg=1 bus=node_444690507.1.2.3 conn=delta Kv=13.8 Kva=75.0 %R=0.670
~ wdg=2 bus=node_460108121.1.2.3.4 conn=wye Kv=0.2200 Kva=75.0 %R=0.670
New Transformer.331242542_331766407 phases=3 windings=2 Xhl=3.770
~ wdg=1 bus=node_444688411.1.2.3 conn=delta Kv=13.8 Kva=75.0 %R=0.670
~ wdg=2 bus=node_418071308.1.2.3.4 conn=wye Kv=0.2200 Kva=75.0 %R=0.670
New Transformer.331242716_331763680 phases=3 windings=2 Xhl=3.770
~ wdg=1 bus=node_426467791.1.2.3 conn=delta Kv=13.8 Kva=75.0 %R=0.670
~ wdg=2 bus=node_418845567.1.2.3.4 conn=wye Kv=0.2200 Kva=75.0 %R=0.670
New Transformer.919839225_919839224 phases=3 windings=2 Xhl=3.770
~ wdg=1 bus=node_444463677.1.2.3 conn=delta Kv=13.8 Kva=75.0 %R=0.670
~ wdg=2 bus=node_418077960.1.2.3.4 conn=wye Kv=0.2200 Kva=75.0 %R=0.670
New Transformer.1622539899_1622539900 phases=3 windings=2 Xhl=3.770
~ wdg=1 bus=node_1977757070.1.2.3 conn=delta Kv=13.8 Kva=75.0 %R=0.670
~ wdg=2 bus=node_1977757377.1.2.3.4 conn=wye Kv=0.2200 Kva=75.0 %R=0.670
New Transformer.331243216_331763411 phases=3 windings=2 Xhl=3.770
~ wdg=1 bus=node_442735690.1.2.3 conn=delta Kv=13.8 Kva=75.0 %R=0.670
~ wdg=2 bus=node_418078008.1.2.3.4 conn=wye Kv=0.2200 Kva=75.0 %R=0.670
New Transformer.331243207_331729907 phases=3 windings=2 Xhl=3.770
~ wdg=1 bus=node_431499102.1.2.3 conn=delta Kv=13.8 Kva=75.0 %R=0.670
~ wdg=2 bus=node_419961514.1.2.3.4 conn=wye Kv=0.2200 Kva=75.0 %R=0.670
New Transformer.1303752884_1303752883 phases=3 windings=2 Xhl=3.770
~ wdg=1 bus=node_1602323334.1.2.3 conn=delta Kv=13.8 Kva=75.0 %R=0.670
...